<?xml version="1.0" encoding="UTF-8"?>

<!-- generated on Mi 21 Aug 2019 14:38:43 CEST by Eclipse SUMO netedit Version v1_2_0+0803-e2fd7b8a96
<configuration xmlns:xsi="http://www.w3.org/2001/XMLSchema-instance" xsi:noNamespaceSchemaLocation="http://sumo.dlr.de/xsd/netconvertConfiguration.xsd">

    <input>
        <sumo-net-file value="/home/arne/Masterarbeit/SUMO/net1.net.xml"/>
    </input>

    <output>
        <output-file value="/home/arne/Masterarbeit/SUMO/net1.net.xml"/>
    </output>

    <processing>
        <geometry.max-grade.fix value="false"/>
        <offset.disable-normalization value="true"/>
        <lefthand value="false"/>
    </processing>

    <junctions>
        <no-turnarounds value="true"/>
        <junctions.corner-detail value="5"/>
        <junctions.limit-turn-speed value="5.5"/>
        <rectangular-lane-cut value="false"/>
    </junctions>

    <pedestrian>
        <walkingareas value="false"/>
    </pedestrian>

    <netedit>
        <additional-files value="/home/arne/Masterarbeit/SUMO/reroutes.add.xml"/>
    </netedit>

</configuration>
-->

<additional xmlns:xsi="http://www.w3.org/2001/XMLSchema-instance" xsi:noNamespaceSchemaLocation="http://sumo.dlr.de/xsd/additional_file.xsd">
    <rerouter id="rr0" edges="r0" pos="0.00,0.00">
        <interval begin="0.00" end="3600.00">
            <destProbReroute id="r1"/>
        </interval>
    </rerouter>
    <rerouter id="rr1" edges="r1" pos="0.00,0.00">
        <interval begin="0.00" end="3600.00">
            <destProbReroute id="r2"/>
        </interval>
    </rerouter>
    <rerouter id="rr2" edges="r2" pos="0.00,0.00">
        <interval begin="0.00" end="3600.00">
            <destProbReroute id="r3"/>
        </interval>
    </rerouter>
    <rerouter id="rr3" edges="r3" pos="0.00,0.00">
        <interval begin="0.00" end="3600.00">
            <destProbReroute id="r0"/>
        </interval>
    </rerouter>
</additional>
