<configuration>
	<input>
		<net-file value="net.net.xml" />
		<route-files value="routes.xml" />
		<additional-files value="reroutes.add.xml" />
	</input>
</configuration>
